PV_Scenarios/PV_combined/scenario_18_combined/PV_combined90per.txt
New PVSystem.PV_1 phases=1 bus1=G2000SN2500_N274191_sec_4.3 kV=0.24 kVA=5.04 irradiance=1 Pmpp=4.2 %cutin=0.1 %cutout=0.1
New PVSystem.PV_2 phases=1 bus1=G2000SO2200_N274207_sec_1.3 kV=0.24 kVA=5.28 irradiance=1 Pmpp=4.4 %cutin=0.1 %cutout=0.1
New PVSystem.PV_3 phases=1 bus1=G2000SO9800_N274224_sec_4.3 kV=0.24 kVA=8.04 irradiance=1 Pmpp=6.7 %cutin=0.1 %cutout=0.1
New PVSystem.PV_4 phases=1 bus1=G2000VL8700_N283799_sec_3.3 kV=0.24 kVA=6 irradiance=1 Pmpp=5 %cutin=0.1 %cutout=0.1
New PVSystem.PV_5 phases=1 bus1=G2000WM0100_N283809_sec_2.3 kV=0.24 kVA=2.52 irradiance=1 Pmpp=2.1 %cutin=0.1 %cutout=0.1
New PVSystem.PV_6 phases=1 bus1=G2001RL0800_N274521_sec_5.2 kV=0.24 kVA=12.0034 irradiance=1 Pmpp=10.0028 %cutin=0.1 %cutout=0.1
New PVSystem.PV_7 phases=1 bus1=G2001SA7400_N274224_sec_2.3 kV=0.24 kVA=11.4 irradiance=1 Pmpp=9.5 %cutin=0.1 %cutout=0.1
New PVSystem.PV_8 phases=1 bus1=G2001TF3200_N284090_sec_4.3 kV=0.24 kVA=5.0812 irradiance=1 Pmpp=4.2343 %cutin=0.1 %cutout=0.1
New PVSystem.PV_9 phases=1 bus1=G2001TL8100_N274509_sec_1.2 kV=0.24 kVA=11.16 irradiance=1 Pmpp=9.3 %cutin=0.1 %cutout=0.1
New PVSystem.PV_10 phases=1 bus1=G2001TL8100_N274509_sec_2.2 kV=0.24 kVA=8.04 irradiance=1 Pmpp=6.7 %cutin=0.1 %cutout=0.1
New PVSystem.PV_11 phases=1 bus1=G2001UD7700_N284028_sec_5.3 kV=0.24 kVA=3.36 irradiance=1 Pmpp=2.8 %cutin=0.1 %cutout=0.1
New PVSystem.PV_12 phases=1 bus1=G2001UF5200_N284089_sec_2.3 kV=0.24 kVA=6 irradiance=1 Pmpp=5 %cutin=0.1 %cutout=0.1
New PVSystem.PV_13 phases=1 bus1=G2001UJ6300_N284204_sec_1.2 kV=0.24 kVA=5.76 irradiance=1 Pmpp=4.8 %cutin=0.1 %cutout=0.1
New PVSystem.PV_14 phases=1 bus1=G2001VE0100_N284048_sec_2.3 kV=0.24 kVA=10.7727 irradiance=1 Pmpp=8.9772 %cutin=0.1 %cutout=0.1
New PVSystem.PV_15 phases=1 bus1=G2001XE2600_N284069_sec_2.1 kV=0.24 kVA=12 irradiance=1 Pmpp=10 %cutin=0.1 %cutout=0.1
New PVSystem.PV_16 phases=1 bus1=G2100AE4800_N283558_sec_1.3 kV=0.24 kVA=2.64 irradiance=1 Pmpp=2.2 %cutin=0.1 %cutout=0.1
New PVSystem.PV_17 phases=1 bus1=G2100AH8200_N283618_sec_7.3 kV=0.24 kVA=3.24 irradiance=1 Pmpp=2.7 %cutin=0.1 %cutout=0.1
New PVSystem.PV_18 phases=1 bus1=G2100AL1800_N283798_sec_2.1 kV=0.24 kVA=8.7625 irradiance=1 Pmpp=7.3021 %cutin=0.1 %cutout=0.1
New PVSystem.PV_19 phases=1 bus1=G2100BH6100_N283623_sec_3.3 kV=0.24 kVA=2.64 irradiance=1 Pmpp=2.2 %cutin=0.1 %cutout=0.1
New PVSystem.PV_20 phases=1 bus1=G2100BJ0700_N283696_sec_12.2 kV=0.24 kVA=7.92 irradiance=1 Pmpp=6.6 %cutin=0.1 %cutout=0.1
New PVSystem.PV_21 phases=1 bus1=G2100CG0300_N283590_sec_2.3 kV=0.24 kVA=2.04 irradiance=1 Pmpp=1.7 %cutin=0.1 %cutout=0.1
New PVSystem.PV_22 phases=1 bus1=G2100CH7400_N283632_sec_6.3 kV=0.24 kVA=3 irradiance=1 Pmpp=2.5 %cutin=0.1 %cutout=0.1
New PVSystem.PV_23 phases=1 bus1=G2100CI1500_N283687_sec_3.2 kV=0.24 kVA=10.92 irradiance=1 Pmpp=9.1 %cutin=0.1 %cutout=0.1
New PVSystem.PV_24 phases=1 bus1=G2100DJ0500_N283740_sec_2.2 kV=0.24 kVA=8.88 irradiance=1 Pmpp=7.4 %cutin=0.1 %cutout=0.1
New PVSystem.PV_25 phases=1 bus1=G2100DL9800_N283744_sec_3.2 kV=0.24 kVA=11.04 irradiance=1 Pmpp=9.2 %cutin=0.1 %cutout=0.1
New PVSystem.PV_26 phases=1 bus1=G2100DN3000_N283838_sec_8.3 kV=0.24 kVA=3.96 irradiance=1 Pmpp=3.3 %cutin=0.1 %cutout=0.1
New PVSystem.PV_27 phases=1 bus1=G2100DN4800_N283861_sec_20.3 kV=0.24 kVA=2.28 irradiance=1 Pmpp=1.9 %cutin=0.1 %cutout=0.1
New PVSystem.PV_28 phases=1 bus1=G2100EG8500_N292275_sec_3.3 kV=0.24 kVA=4.92 irradiance=1 Pmpp=4.1 %cutin=0.1 %cutout=0.1
New PVSystem.PV_29 phases=1 bus1=G2100EK2800_N292334_sec_3.2 kV=0.24 kVA=5.76 irradiance=1 Pmpp=4.8 %cutin=0.1 %cutout=0.1
New PVSystem.PV_30 phases=1 bus1=G2100EN8600_N292479_sec_6.3 kV=0.24 kVA=3.12 irradiance=1 Pmpp=2.6 %cutin=0.1 %cutout=0.1
New PVSystem.PV_31 phases=1 bus1=G2100EN8600_N292479_sec_15.3 kV=0.24 kVA=3 irradiance=1 Pmpp=2.5 %cutin=0.1 %cutout=0.1
New PVSystem.PV_32 phases=1 bus1=G2100EO2100_N292498_sec_11.3 kV=0.24 kVA=1.68 irradiance=1 Pmpp=1.4 %cutin=0.1 %cutout=0.1
New PVSystem.PV_33 phases=3 conn = delta bus1=G2100FE2600_N292234_sec_8.1.2.3 kV=0.48 kVA=19.32 irradiance=1 Pmpp=16.1 %cutin=0.1 %cutout=0.1
New PVSystem.PV_34 phases=3 conn = delta bus1=G2100FE5400_N292228_sec_2.1.2.3 kV=0.48 kVA=144.72 irradiance=1 Pmpp=120.6 %cutin=0.1 %cutout=0.1
New PVSystem.PV_35 phases=3 conn = delta bus1=G2100FJ3800_N292380_sec_16.1.2.3 kV=0.48 kVA=29.76 irradiance=1 Pmpp=24.8 %cutin=0.1 %cutout=0.1
New PVSystem.PV_36 phases=3 conn = delta bus1=G2100GM6700_N292446_sec_1.1.2.3 kV=0.48 kVA=55.1173 irradiance=1 Pmpp=45.9311 %cutin=0.1 %cutout=0.1
New PVSystem.PV_37 phases=1 bus1=G2100IN2700_N292475_sec_18.3 kV=0.24 kVA=2.88 irradiance=1 Pmpp=2.4 %cutin=0.1 %cutout=0.1
New PVSystem.PV_38 phases=1 bus1=G2100NM4100_N300509_sec_1.1 kV=0.24 kVA=3.6 irradiance=1 Pmpp=3 %cutin=0.1 %cutout=0.1
New PVSystem.PV_39 phases=1 bus1=G2100NM6600_N300513_sec_5.1 kV=0.24 kVA=7.68 irradiance=1 Pmpp=6.4 %cutin=0.1 %cutout=0.1
New PVSystem.PV_40 phases=1 bus1=G2100OM2900_N300514_sec_2.1 kV=0.24 kVA=3 irradiance=1 Pmpp=2.5 %cutin=0.1 %cutout=0.1
New PVSystem.PV_41 phases=1 bus1=G2100PA2100_N300606_sec_2.1 kV=0.24 kVA=4.56 irradiance=1 Pmpp=3.8 %cutin=0.1 %cutout=0.1
New PVSystem.PV_42 phases=1 bus1=G2100PN6500_N300562_sec_4.1 kV=0.24 kVA=3.36 irradiance=1 Pmpp=2.8 %cutin=0.1 %cutout=0.1
New PVSystem.PV_43 phases=1 bus1=G2100PO1400_N300580_sec_1.1 kV=0.24 kVA=5.16 irradiance=1 Pmpp=4.3 %cutin=0.1 %cutout=0.1
New PVSystem.PV_44 phases=1 bus1=G2100QP9600_N300587_sec_10.2 kV=0.24 kVA=7.8 irradiance=1 Pmpp=6.5 %cutin=0.1 %cutout=0.1
New PVSystem.PV_45 phases=1 bus1=G2101AG2300_N284123_sec_1.3 kV=0.24 kVA=4.32 irradiance=1 Pmpp=3.6 %cutin=0.1 %cutout=0.1
New PVSystem.PV_46 phases=1 bus1=G2101BC6900_N283995_sec_4.2 kV=0.24 kVA=9.0619 irradiance=1 Pmpp=7.5516 %cutin=0.1 %cutout=0.1
New PVSystem.PV_47 phases=1 bus1=G2101BD7000_N283957_sec_2.3 kV=0.24 kVA=5.04 irradiance=1 Pmpp=4.2 %cutin=0.1 %cutout=0.1
New PVSystem.PV_48 phases=1 bus1=G2101BM6600_N284296_sec_1.1 kV=0.24 kVA=7.92 irradiance=1 Pmpp=6.6 %cutin=0.1 %cutout=0.1
New PVSystem.PV_49 phases=1 bus1=G2101DD6900_N284041_sec_3.2 kV=0.24 kVA=8.88 irradiance=1 Pmpp=7.4 %cutin=0.1 %cutout=0.1
New PVSystem.PV_50 phases=1 bus1=G2101DG9100_N292718_sec_1.2 kV=0.24 kVA=4.213 irradiance=1 Pmpp=3.5108 %cutin=0.1 %cutout=0.1
New PVSystem.PV_51 phases=1 bus1=G2101EC8400_N292647_sec_1.1 kV=0.24 kVA=2.76 irradiance=1 Pmpp=2.3 %cutin=0.1 %cutout=0.1
New PVSystem.PV_52 phases=1 bus1=G2101EM5500_N292834_sec_2.2 kV=0.24 kVA=11.04 irradiance=1 Pmpp=9.2 %cutin=0.1 %cutout=0.1
New PVSystem.PV_53 phases=1 bus1=G2101FC8400_N292612_sec_5.2 kV=0.24 kVA=5.04 irradiance=1 Pmpp=4.2 %cutin=0.1 %cutout=0.1
New PVSystem.PV_54 phases=1 bus1=G2101FC8400_N292612_sec_13.2 kV=0.24 kVA=6 irradiance=1 Pmpp=5 %cutin=0.1 %cutout=0.1
New PVSystem.PV_55 phases=1 bus1=G2101FC8400_N292612_sec_14.2 kV=0.24 kVA=3.84 irradiance=1 Pmpp=3.2 %cutin=0.1 %cutout=0.1
New PVSystem.PV_56 phases=1 bus1=G2101GC3200_N292623_sec_10.1 kV=0.24 kVA=2.4 irradiance=1 Pmpp=2 %cutin=0.1 %cutout=0.1
New PVSystem.PV_57 phases=1 bus1=G2101GC3200_N292623_sec_12.1 kV=0.24 kVA=3.72 irradiance=1 Pmpp=3.1 %cutin=0.1 %cutout=0.1
New PVSystem.PV_58 phases=1 bus1=G2101GC3400_N292625_sec_12.1 kV=0.24 kVA=2.88 irradiance=1 Pmpp=2.4 %cutin=0.1 %cutout=0.1
New PVSystem.PV_59 phases=1 bus1=G2101GC9100_N292619_sec_3.1 kV=0.24 kVA=4.56 irradiance=1 Pmpp=3.8 %cutin=0.1 %cutout=0.1
New PVSystem.PV_60 phases=1 bus1=G2101GD1300_N292637_sec_16.1 kV=0.24 kVA=3.6 irradiance=1 Pmpp=3 %cutin=0.1 %cutout=0.1
New PVSystem.PV_61 phases=1 bus1=G2101GD6200_N292642_sec_5.1 kV=0.24 kVA=1.44 irradiance=1 Pmpp=1.2 %cutin=0.1 %cutout=0.1
New PVSystem.PV_62 phases=1 bus1=G2101GD6200_N292642_sec_20.1 kV=0.24 kVA=1.8 irradiance=1 Pmpp=1.5 %cutin=0.1 %cutout=0.1
New PVSystem.PV_63 phases=1 bus1=G2101GD9500_N292651_sec_8.1 kV=0.24 kVA=4.08 irradiance=1 Pmpp=3.4 %cutin=0.1 %cutout=0.1
New PVSystem.PV_64 phases=1 bus1=G2101HB3500_N292585_sec_10.1 kV=0.24 kVA=1.2 irradiance=1 Pmpp=1 %cutin=0.1 %cutout=0.1
New PVSystem.PV_65 phases=1 bus1=G2101HD1100_N292645_sec_15.1 kV=0.24 kVA=3.96 irradiance=1 Pmpp=3.3 %cutin=0.1 %cutout=0.1
New PVSystem.PV_66 phases=1 bus1=G2101HG3400_N1406188_sec_4.1 kV=0.24 kVA=4.56 irradiance=1 Pmpp=3.8 %cutin=0.1 %cutout=0.1
New PVSystem.PV_67 phases=3 conn = delta bus1=G2101JA6700_N1321243_sec_8.1.2.3 kV=0.48 kVA=12 irradiance=1 Pmpp=10 %cutin=0.1 %cutout=0.1
New PVSystem.PV_68 phases=1 bus1=G2101KA6800_N300662_sec_1.1 kV=0.24 kVA=1.44 irradiance=1 Pmpp=1.2 %cutin=0.1 %cutout=0.1
New PVSystem.PV_69 phases=1 bus1=G2101PA3400_N300633_sec_1.1 kV=0.24 kVA=3.48 irradiance=1 Pmpp=2.9 %cutin=0.1 %cutout=0.1
New PVSystem.PV_70 phases=1 bus1=G2101PB5100_N300681_sec_6.1 kV=0.24 kVA=4.44 irradiance=1 Pmpp=3.7 %cutin=0.1 %cutout=0.1
New PVSystem.PV_71 phases=1 bus1=G2101RC6500_N312606_sec_2.1 kV=0.24 kVA=4.56 irradiance=1 Pmpp=3.8 %cutin=0.1 %cutout=0.1
New PVSystem.PV_72 phases=1 bus1=G2101SB2000_N312551_sec_4.1 kV=0.24 kVA=3.72 irradiance=1 Pmpp=3.1 %cutin=0.1 %cutout=0.1
New PVSystem.PV_73 phases=1 bus1=G2101TA3200_N312486_sec_2.2 kV=0.24 kVA=5.52 irradiance=1 Pmpp=4.6 %cutin=0.1 %cutout=0.1
New PVSystem.PV_74 phases=1 bus1=G2101TA3200_N312486_sec_4.2 kV=0.24 kVA=5.76 irradiance=1 Pmpp=4.8 %cutin=0.1 %cutout=0.1
New PVSystem.PV_75 phases=1 bus1=G2102AA7100_N284314_sec_2.1 kV=0.24 kVA=4.56 irradiance=1 Pmpp=3.8 %cutin=0.1 %cutout=0.1
New PVSystem.PV_76 phases=1 bus1=G2102BB1100_N284327_sec_2.1 kV=0.24 kVA=8.64 irradiance=1 Pmpp=7.2 %cutin=0.1 %cutout=0.1
New PVSystem.PV_77 phases=1 bus1=G2102BC8300_N284337_sec_1.1 kV=0.24 kVA=7.32 irradiance=1 Pmpp=6.1 %cutin=0.1 %cutout=0.1
New PVSystem.PV_78 phases=1 bus1=G2102CF1500_N284387_sec_1.1 kV=0.24 kVA=11.9605 irradiance=1 Pmpp=9.9671 %cutin=0.1 %cutout=0.1
New PVSystem.PV_79 phases=1 bus1=G2000SK7800_N274150_sec_5.2 kV=0.24 kVA=13.32 irradiance=1 Pmpp=11.1 %cutin=0.1 %cutout=0.1
New PVSystem.PV_80 phases=1 bus1=G2000VH9500_N283675_sec_2.2 kV=0.24 kVA=6 irradiance=1 Pmpp=5 %cutin=0.1 %cutout=0.1
New PVSystem.PV_81 phases=1 bus1=G2000VH9500_N283675_sec_8.2 kV=0.24 kVA=6.24 irradiance=1 Pmpp=5.2 %cutin=0.1 %cutout=0.1
New PVSystem.PV_82 phases=1 bus1=G2000VI6200_N283684_sec_13.2 kV=0.24 kVA=9.84 irradiance=1 Pmpp=8.2 %cutin=0.1 %cutout=0.1
New PVSystem.PV_83 phases=1 bus1=G2000XH4800_N283608_sec_5.2 kV=0.24 kVA=7.56 irradiance=1 Pmpp=6.3 %cutin=0.1 %cutout=0.1
New PVSystem.PV_84 phases=1 bus1=G2000YI1900_N283701_sec_1.1 kV=0.24 kVA=4.56 irradiance=1 Pmpp=3.8 %cutin=0.1 %cutout=0.1
New PVSystem.PV_85 phases=1 bus1=G2001RB7800_N274248_sec_2.3 kV=0.24 kVA=4.32 irradiance=1 Pmpp=3.6 %cutin=0.1 %cutout=0.1
New PVSystem.PV_86 phases=1 bus1=G2001RI6300_N1347089_sec_3.1 kV=0.24 kVA=5.28 irradiance=1 Pmpp=4.4 %cutin=0.1 %cutout=0.1
New PVSystem.PV_87 phases=1 bus1=G2001RM3600_N274547_sec_5.2 kV=0.24 kVA=7.9083 irradiance=1 Pmpp=6.5902 %cutin=0.1 %cutout=0.1
New PVSystem.PV_88 phases=1 bus1=G2001SL1400_N274531_sec_2.2 kV=0.24 kVA=8.04 irradiance=1 Pmpp=6.7 %cutin=0.1 %cutout=0.1
New PVSystem.PV_89 phases=1 bus1=G2001TD3700_N274305_sec_1.3 kV=0.24 kVA=5.28 irradiance=1 Pmpp=4.4 %cutin=0.1 %cutout=0.1
New PVSystem.PV_90 phases=1 bus1=G2001TI5600_N284162_sec_3.2 kV=0.24 kVA=11.88 irradiance=1 Pmpp=9.9 %cutin=0.1 %cutout=0.1
New PVSystem.PV_91 phases=1 bus1=G2001UD4700_N284020_sec_1.3 kV=0.24 kVA=7.92 irradiance=1 Pmpp=6.6 %cutin=0.1 %cutout=0.1
New PVSystem.PV_92 phases=1 bus1=G2001UD4700_N284020_sec_2.3 kV=0.24 kVA=2.76 irradiance=1 Pmpp=2.3 %cutin=0.1 %cutout=0.1
New PVSystem.PV_93 phases=1 bus1=G2001UJ6300_N284204_sec_3.2 kV=0.24 kVA=7.8 irradiance=1 Pmpp=6.5 %cutin=0.1 %cutout=0.1
New PVSystem.PV_94 phases=1 bus1=G2001VH9900_N284172_sec_1.3 kV=0.24 kVA=2.76 irradiance=1 Pmpp=2.3 %cutin=0.1 %cutout=0.1
New PVSystem.PV_95 phases=1 bus1=G2001WB8800_N283948_sec_9.3 kV=0.24 kVA=5.1983 irradiance=1 Pmpp=4.3319 %cutin=0.1 %cutout=0.1
New PVSystem.PV_96 phases=1 bus1=G2001WB9000_N283924_sec_4.3 kV=0.24 kVA=3.6506 irradiance=1 Pmpp=3.0422 %cutin=0.1 %cutout=0.1
New PVSystem.PV_97 phases=1 bus1=G2001WG8300_N284116_sec_1.3 kV=0.24 kVA=5.1933 irradiance=1 Pmpp=4.3278 %cutin=0.1 %cutout=0.1
New PVSystem.PV_98 phases=1 bus1=G2001XC7500_N283961_sec_1.3 kV=0.24 kVA=4.44 irradiance=1 Pmpp=3.7 %cutin=0.1 %cutout=0.1
New PVSystem.PV_99 phases=1 bus1=G2001XI4700_N284192_sec_2.3 kV=0.24 kVA=2.64 irradiance=1 Pmpp=2.2 %cutin=0.1 %cutout=0.1
New PVSystem.PV_100 phases=1 bus1=G2001XM3800_N284277_sec_1.1 kV=0.24 kVA=5.462 irradiance=1 Pmpp=4.5517 %cutin=0.1 %cutout=0.1
New PVSystem.PV_101 phases=1 bus1=G2100AD9900_N283564_sec_5.3 kV=0.24 kVA=2.88 irradiance=1 Pmpp=2.4 %cutin=0.1 %cutout=0.1
New PVSystem.PV_102 phases=1 bus1=G2100AF5900_N283577_sec_4.3 kV=0.24 kVA=5.28 irradiance=1 Pmpp=4.4 %cutin=0.1 %cutout=0.1
New PVSystem.PV_103 phases=1 bus1=G2100AH6800_N283651_sec_3.3 kV=0.24 kVA=8.04 irradiance=1 Pmpp=6.7 %cutin=0.1 %cutout=0.1
New PVSystem.PV_104 phases=1 bus1=G2100AL1800_N283798_sec_5.1 kV=0.24 kVA=4.56 irradiance=1 Pmpp=3.8 %cutin=0.1 %cutout=0.1
New PVSystem.PV_105 phases=1 bus1=G2100BL1200_N283774_sec_2.1 kV=0.24 kVA=4.2 irradiance=1 Pmpp=3.5 %cutin=0.1 %cutout=0.1
New PVSystem.PV_106 phases=1 bus1=G2100BP7000_N283874_sec_4.3 kV=0.24 kVA=3.12 irradiance=1 Pmpp=2.6 %cutin=0.1 %cutout=0.1
New PVSystem.PV_107 phases=1 bus1=G2100CH7400_N283632_sec_8.3 kV=0.24 kVA=3.36 irradiance=1 Pmpp=2.8 %cutin=0.1 %cutout=0.1
New PVSystem.PV_108 phases=1 bus1=G2100CH7400_N283632_sec_24.3 kV=0.24 kVA=2.4 irradiance=1 Pmpp=2 %cutin=0.1 %cutout=0.1
New PVSystem.PV_109 phases=1 bus1=G2100CK4000_N283780_sec_6.2 kV=0.24 kVA=12.84 irradiance=1 Pmpp=10.7 %cutin=0.1 %cutout=0.1
New PVSystem.PV_110 phases=1 bus1=G2100CN4000_N283847_sec_1.3 kV=0.24 kVA=3.72 irradiance=1 Pmpp=3.1 %cutin=0.1 %cutout=0.1
New PVSystem.PV_111 phases=1 bus1=G2100CN4900_N283858_sec_13.3 kV=0.24 kVA=1.44 irradiance=1 Pmpp=1.2 %cutin=0.1 %cutout=0.1
New PVSystem.PV_112 phases=1 bus1=G2100DG3700_N283614_sec_5.3 kV=0.24 kVA=3.36 irradiance=1 Pmpp=2.8 %cutin=0.1 %cutout=0.1
New PVSystem.PV_113 phases=1 bus1=G2100DG3700_N283614_sec_16.3 kV=0.24 kVA=2.52 irradiance=1 Pmpp=2.1 %cutin=0.1 %cutout=0.1
New PVSystem.PV_114 phases=1 bus1=G2100DG6300_N283589_sec_6.3 kV=0.24 kVA=1.56 irradiance=1 Pmpp=1.3 %cutin=0.1 %cutout=0.1
New PVSystem.PV_115 phases=1 bus1=G2100DK1500_N283758_sec_5.2 kV=0.24 kVA=4.44 irradiance=1 Pmpp=3.7 %cutin=0.1 %cutout=0.1
New PVSystem.PV_116 phases=1 bus1=G2100DN4800_N283861_sec_6.3 kV=0.24 kVA=1.32 irradiance=1 Pmpp=1.1 %cutin=0.1 %cutout=0.1
New PVSystem.PV_117 phases=3 conn = delta bus1=G2100EG9700_N292283_sec_5.1.2.3 kV=0.48 kVA=13.92 irradiance=1 Pmpp=11.6 %cutin=0.1 %cutout=0.1
New PVSystem.PV_118 phases=1 bus1=G2100EM1500_N292428_sec_3.3 kV=0.24 kVA=2.88 irradiance=1 Pmpp=2.4 %cutin=0.1 %cutout=0.1
New PVSystem.PV_119 phases=3 conn = delta bus1=G2100FG1700_N292304_sec_7.1.2.3 kV=0.48 kVA=17.64 irradiance=1 Pmpp=14.7 %cutin=0.1 %cutout=0.1
New PVSystem.PV_120 phases=3 conn = delta bus1=G2100FJ3800_N292380_sec_17.1.2.3 kV=0.48 kVA=8.88 irradiance=1 Pmpp=7.4 %cutin=0.1 %cutout=0.1
New PVSystem.PV_121 phases=1 bus1=G2100HN5600_N292453_sec_20.3 kV=0.24 kVA=0 irradiance=1 Pmpp=0 %cutin=0.1 %cutout=0.1
New PVSystem.PV_122 phases=1 bus1=G2100HN5600_N292453_sec_35.3 kV=0.24 kVA=2.88 irradiance=1 Pmpp=2.4 %cutin=0.1 %cutout=0.1
New PVSystem.PV_123 phases=1 bus1=G2100IL1000_N292412_sec_18.3 kV=0.24 kVA=2.4 irradiance=1 Pmpp=2 %cutin=0.1 %cutout=0.1
New PVSystem.PV_124 phases=1 bus1=G2100IM6700_N292430_sec_37.3 kV=0.24 kVA=1.44 irradiance=1 Pmpp=1.2 %cutin=0.1 %cutout=0.1
New PVSystem.PV_125 phases=1 bus1=G2100IN7700_N292438_sec_26.3 kV=0.24 kVA=1.32 irradiance=1 Pmpp=1.1 %cutin=0.1 %cutout=0.1
New PVSystem.PV_126 phases=1 bus1=G2100IN7700_N292438_sec_35.3 kV=0.24 kVA=2.88 irradiance=1 Pmpp=2.4 %cutin=0.1 %cutout=0.1
New PVSystem.PV_127 phases=1 bus1=G2100JP3100_N300601_sec_3.1 kV=0.24 kVA=10.08 irradiance=1 Pmpp=8.4 %cutin=0.1 %cutout=0.1
New PVSystem.PV_128 phases=3 conn = delta bus1=G2100NJ9400_N300465_sec_4.1.2.3 kV=0.48 kVA=1.92 irradiance=1 Pmpp=1.6 %cutin=0.1 %cutout=0.1
New PVSystem.PV_129 phases=1 bus1=G2100NM7500_N300513_sec_7.1 kV=0.24 kVA=2.88 irradiance=1 Pmpp=2.4 %cutin=0.1 %cutout=0.1
New PVSystem.PV_130 phases=1 bus1=G2100OM0900_N300535_sec_3.1 kV=0.24 kVA=2.64 irradiance=1 Pmpp=2.2 %cutin=0.1 %cutout=0.1
New PVSystem.PV_131 phases=1 bus1=G2100QM7500_N300522_sec_3.3 kV=0.24 kVA=2.28 irradiance=1 Pmpp=1.9 %cutin=0.1 %cutout=0.1
New PVSystem.PV_132 phases=1 bus1=G2100QM7500_N300522_sec_7.3 kV=0.24 kVA=3.24 irradiance=1 Pmpp=2.7 %cutin=0.1 %cutout=0.1
New PVSystem.PV_133 phases=1 bus1=G2100QN1500_N300555_sec_8.2 kV=0.24 kVA=5.4248 irradiance=1 Pmpp=4.5207 %cutin=0.1 %cutout=0.1
New PVSystem.PV_134 phases=1 bus1=G2100QN1500_N300555_sec_9.2 kV=0.24 kVA=2.1673 irradiance=1 Pmpp=1.8061 %cutin=0.1 %cutout=0.1
New PVSystem.PV_135 phases=1 bus1=G2100RN1800_N300557_sec_7.3 kV=0.24 kVA=4.32 irradiance=1 Pmpp=3.6 %cutin=0.1 %cutout=0.1
New PVSystem.PV_136 phases=1 bus1=G2100SO3700_N312462_sec_10.3 kV=0.24 kVA=2.76 irradiance=1 Pmpp=2.3 %cutin=0.1 %cutout=0.1
New PVSystem.PV_137 phases=3 conn = delta bus1=G2100TO3200_N312445_sec_1.1.2.3 kV=0.48 kVA=157.0579 irradiance=1 Pmpp=130.8816 %cutin=0.1 %cutout=0.1
New PVSystem.PV_138 phases=1 bus1=G2101AJ7700_N284211_sec_1.1 kV=0.24 kVA=6.9416 irradiance=1 Pmpp=5.7847 %cutin=0.1 %cutout=0.1
New PVSystem.PV_139 phases=1 bus1=G2101BB3500_N283890_sec_5.1 kV=0.24 kVA=6.72 irradiance=1 Pmpp=5.6 %cutin=0.1 %cutout=0.1
New PVSystem.PV_140 phases=1 bus1=G2101BC7200_N283931_sec_11.1 kV=0.24 kVA=5.52 irradiance=1 Pmpp=4.6 %cutin=0.1 %cutout=0.1
New PVSystem.PV_141 phases=1 bus1=G2101BI4200_N284183_sec_4.3 kV=0.24 kVA=3.24 irradiance=1 Pmpp=2.7 %cutin=0.1 %cutout=0.1
New PVSystem.PV_142 phases=1 bus1=G2101BN4800_N284308_sec_1.1 kV=0.24 kVA=2.04 irradiance=1 Pmpp=1.7 %cutin=0.1 %cutout=0.1
New PVSystem.PV_143 phases=1 bus1=G2101CC3700_N283974_sec_2.3 kV=0.24 kVA=3.96 irradiance=1 Pmpp=3.3 %cutin=0.1 %cutout=0.1
New PVSystem.PV_144 phases=1 bus1=G2101CL5700_N284257_sec_1.1 kV=0.24 kVA=4.44 irradiance=1 Pmpp=3.7 %cutin=0.1 %cutout=0.1
New PVSystem.PV_145 phases=1 bus1=G2101DC3900_N283999_sec_2.2 kV=0.24 kVA=11.76 irradiance=1 Pmpp=9.8 %cutin=0.1 %cutout=0.1
New PVSystem.PV_146 phases=1 bus1=G2101EK5700_N292808_sec_1.2 kV=0.24 kVA=5.4 irradiance=1 Pmpp=4.5 %cutin=0.1 %cutout=0.1
New PVSystem.PV_147 phases=1 bus1=G2101GL8800_N292877_sec_1.3 kV=0.24 kVA=6.1955 irradiance=1 Pmpp=5.1629 %cutin=0.1 %cutout=0.1
New PVSystem.PV_148 phases=1 bus1=G2101GM5200_N292882_sec_1.3 kV=0.24 kVA=4.32 irradiance=1 Pmpp=3.6 %cutin=0.1 %cutout=0.1
New PVSystem.PV_149 phases=1 bus1=G2101HD1100_N292645_sec_5.1 kV=0.24 kVA=2.76 irradiance=1 Pmpp=2.3 %cutin=0.1 %cutout=0.1
New PVSystem.PV_150 phases=1 bus1=G2101II8600_N292779_sec_1.3 kV=0.24 kVA=7.68 irradiance=1 Pmpp=6.4 %cutin=0.1 %cutout=0.1
New PVSystem.PV_151 phases=1 bus1=G2101JG9800_N300850_sec_5.1 kV=0.24 kVA=9.6 irradiance=1 Pmpp=8 %cutin=0.1 %cutout=0.1
New PVSystem.PV_152 phases=1 bus1=G2101KA2300_N300631_sec_4.1 kV=0.24 kVA=2.4 irradiance=1 Pmpp=2 %cutin=0.1 %cutout=0.1
New PVSystem.PV_153 phases=1 bus1=G2101OA5600_N300661_sec_5.1 kV=0.24 kVA=4.32 irradiance=1 Pmpp=3.6 %cutin=0.1 %cutout=0.1
New PVSystem.PV_154 phases=1 bus1=G2101OB2900_N300670_sec_10.3 kV=0.24 kVA=2.4776 irradiance=1 Pmpp=2.0647 %cutin=0.1 %cutout=0.1
New PVSystem.PV_155 phases=1 bus1=G2101RA0900_N300678_sec_2.1 kV=0.24 kVA=0 irradiance=1 Pmpp=0 %cutin=0.1 %cutout=0.1
New PVSystem.PV_156 phases=1 bus1=G2000SK5500_N274137_sec_5.2 kV=0.24 kVA=6.12 irradiance=1 Pmpp=5.1 %cutin=0.1 %cutout=0.1
New PVSystem.PV_157 phases=1 bus1=G2000TJ2700_N274103_sec_4.3 kV=0.24 kVA=4.1935 irradiance=1 Pmpp=3.4946 %cutin=0.1 %cutout=0.1
New PVSystem.PV_158 phases=1 bus1=G2000VH9500_N283675_sec_13.2 kV=0.24 kVA=5.4 irradiance=1 Pmpp=4.5 %cutin=0.1 %cutout=0.1
New PVSystem.PV_159 phases=1 bus1=G2000VI6200_N283684_sec_12.2 kV=0.24 kVA=5.88 irradiance=1 Pmpp=4.9 %cutin=0.1 %cutout=0.1
New PVSystem.PV_160 phases=1 bus1=G2000WI4400_N283710_sec_4.2 kV=0.24 kVA=10.0937 irradiance=1 Pmpp=8.4114 %cutin=0.1 %cutout=0.1
New PVSystem.PV_161 phases=1 bus1=G2000WI4400_N283710_sec_7.2 kV=0.24 kVA=4.8 irradiance=1 Pmpp=4 %cutin=0.1 %cutout=0.1
New PVSystem.PV_162 phases=1 bus1=G2000WL9300_N283779_sec_1.2 kV=0.24 kVA=1.08 irradiance=1 Pmpp=0.9 %cutin=0.1 %cutout=0.1
New PVSystem.PV_163 phases=1 bus1=G2000XL8000_N283769_sec_2.1 kV=0.24 kVA=3.96 irradiance=1 Pmpp=3.3 %cutin=0.1 %cutout=0.1
New PVSystem.PV_164 phases=1 bus1=G2001RH4100_N274394_sec_8.2 kV=0.24 kVA=6.12 irradiance=1 Pmpp=5.1 %cutin=0.1 %cutout=0.1
New PVSystem.PV_165 phases=1 bus1=G2001SA7400_N274224_sec_3.3 kV=0.24 kVA=4.32 irradiance=1 Pmpp=3.6 %cutin=0.1 %cutout=0.1
New PVSystem.PV_166 phases=1 bus1=G2001UC6800_N284008_sec_4.3 kV=0.24 kVA=3.12 irradiance=1 Pmpp=2.6 %cutin=0.1 %cutout=0.1
New PVSystem.PV_167 phases=1 bus1=G2001VA3800_N283914_sec_3.3 kV=0.24 kVA=5.88 irradiance=1 Pmpp=4.9 %cutin=0.1 %cutout=0.1
New PVSystem.PV_168 phases=1 bus1=G2001XB6700_N283943_sec_6.3 kV=0.24 kVA=8.28 irradiance=1 Pmpp=6.9 %cutin=0.1 %cutout=0.1
New PVSystem.PV_169 phases=1 bus1=G2001XE7600_N284065_sec_1.1 kV=0.24 kVA=7.92 irradiance=1 Pmpp=6.6 %cutin=0.1 %cutout=0.1
New PVSystem.PV_170 phases=1 bus1=G2001XH4300_N284156_sec_2.3 kV=0.24 kVA=6 irradiance=1 Pmpp=5 %cutin=0.1 %cutout=0.1
New PVSystem.PV_171 phases=1 bus1=G2100AG2100_N283585_sec_9.3 kV=0.24 kVA=3.12 irradiance=1 Pmpp=2.6 %cutin=0.1 %cutout=0.1
New PVSystem.PV_172 phases=1 bus1=G2100AG8700_N283594_sec_5.3 kV=0.24 kVA=4.44 irradiance=1 Pmpp=3.7 %cutin=0.1 %cutout=0.1
New PVSystem.PV_173 phases=1 bus1=G2100AM2200_N283815_sec_2.1 kV=0.24 kVA=4.56 irradiance=1 Pmpp=3.8 %cutin=0.1 %cutout=0.1
New PVSystem.PV_174 phases=1 bus1=G2100BE8900_N283564_sec_5.3 kV=0.24 kVA=3.72 irradiance=1 Pmpp=3.1 %cutin=0.1 %cutout=0.1
New PVSystem.PV_175 phases=1 bus1=G2100BN9700_N283853_sec_1.3 kV=0.24 kVA=0.6 irradiance=1 Pmpp=0.5 %cutin=0.1 %cutout=0.1
New PVSystem.PV_176 phases=1 bus1=G2100BN9700_N283853_sec_3.3 kV=0.24 kVA=2.4 irradiance=1 Pmpp=2 %cutin=0.1 %cutout=0.1
New PVSystem.PV_177 phases=1 bus1=G2100BN9700_N283853_sec_5.3 kV=0.24 kVA=1.68 irradiance=1 Pmpp=1.4 %cutin=0.1 %cutout=0.1
New PVSystem.PV_178 phases=1 bus1=G2100DG6300_N283589_sec_7.3 kV=0.24 kVA=2.16 irradiance=1 Pmpp=1.8 %cutin=0.1 %cutout=0.1
New PVSystem.PV_179 phases=1 bus1=G2100DN3000_N283838_sec_11.3 kV=0.24 kVA=3.12 irradiance=1 Pmpp=2.6 %cutin=0.1 %cutout=0.1
New PVSystem.PV_180 phases=1 bus1=G2100DN4800_N283861_sec_1.3 kV=0.24 kVA=1.8 irradiance=1 Pmpp=1.5 %cutin=0.1 %cutout=0.1
New PVSystem.PV_181 phases=1 bus1=G2100EM6500_N292425_sec_3.3 kV=0.24 kVA=2.52 irradiance=1 Pmpp=2.1 %cutin=0.1 %cutout=0.1
New PVSystem.PV_182 phases=1 bus1=G2100FO1700_N292522_sec_4.3 kV=0.24 kVA=1.32 irradiance=1 Pmpp=1.1 %cutin=0.1 %cutout=0.1
New PVSystem.PV_183 phases=1 bus1=G2100FO1700_N292522_sec_6.3 kV=0.24 kVA=3.12 irradiance=1 Pmpp=2.6 %cutin=0.1 %cutout=0.1
New PVSystem.PV_184 phases=1 bus1=G2100GJ8900_N292370_sec_1.2 kV=0.24 kVA=16.8 irradiance=1 Pmpp=14 %cutin=0.1 %cutout=0.1
New PVSystem.PV_185 phases=1 bus1=G2100GN7300_N292464_sec_6.1 kV=0.24 kVA=8.28 irradiance=1 Pmpp=6.9 %cutin=0.1 %cutout=0.1
New PVSystem.PV_186 phases=3 conn = delta bus1=G2100HI8200_N292329_sec_4.1.2.3 kV=0.48 kVA=6.84 irradiance=1 Pmpp=5.7 %cutin=0.1 %cutout=0.1
New PVSystem.PV_187 phases=1 bus1=G2100HM9900_N292433_sec_9.3 kV=0.24 kVA=1.44 irradiance=1 Pmpp=1.2 %cutin=0.1 %cutout=0.1
New PVSystem.PV_188 phases=1 bus1=G2100HN5600_N292453_sec_6.3 kV=0.24 kVA=2.16 irradiance=1 Pmpp=1.8 %cutin=0.1 %cutout=0.1
New PVSystem.PV_189 phases=1 bus1=G2100HN5600_N292453_sec_15.3 kV=0.24 kVA=2.16 irradiance=1 Pmpp=1.8 %cutin=0.1 %cutout=0.1
New PVSystem.PV_190 phases=1 bus1=G2100HN5600_N292453_sec_41.3 kV=0.24 kVA=3.72 irradiance=1 Pmpp=3.1 %cutin=0.1 %cutout=0.1
New PVSystem.PV_191 phases=1 bus1=G2100HN5600_N292453_sec_57.3 kV=0.24 kVA=2.04 irradiance=1 Pmpp=1.7 %cutin=0.1 %cutout=0.1
New PVSystem.PV_192 phases=1 bus1=G2100IL1000_N292412_sec_37.3 kV=0.24 kVA=1.56 irradiance=1 Pmpp=1.3 %cutin=0.1 %cutout=0.1
New PVSystem.PV_193 phases=1 bus1=G2100IM6700_N292430_sec_28.3 kV=0.24 kVA=1.44 irradiance=1 Pmpp=1.2 %cutin=0.1 %cutout=0.1
New PVSystem.PV_194 phases=3 conn = delta bus1=G2100JP2000_N300602_sec_1.1.2.3 kV=0.48 kVA=0.36 irradiance=1 Pmpp=0.3 %cutin=0.1 %cutout=0.1
New PVSystem.PV_195 phases=1 bus1=G2100KO9900_N300626_sec_2.1 kV=0.24 kVA=0.84 irradiance=1 Pmpp=0.7 %cutin=0.1 %cutout=0.1
New PVSystem.PV_196 phases=3 conn = delta bus1=G2100NI4800_N300455_sec_1.1.2.3 kV=0.48 kVA=205.44 irradiance=1 Pmpp=171.2 %cutin=0.1 %cutout=0.1
New PVSystem.PV_197 phases=3 conn = delta bus1=G2100NI4800_N300455_sec_5.1.2.3 kV=0.48 kVA=74.5622 irradiance=1 Pmpp=62.1351 %cutin=0.1 %cutout=0.1
New PVSystem.PV_198 phases=3 conn = delta bus1=G2100NJ9400_N300465_sec_1.1.2.3 kV=0.48 kVA=123.24 irradiance=1 Pmpp=102.7 %cutin=0.1 %cutout=0.1
New PVSystem.PV_199 phases=1 bus1=G2100OJ3400_N300469_sec_2.2 kV=0.24 kVA=6.8276 irradiance=1 Pmpp=5.6897 %cutin=0.1 %cutout=0.1
New PVSystem.PV_200 phases=1 bus1=G2100PN0800_N300563_sec_7.1 kV=0.24 kVA=4.08 irradiance=1 Pmpp=3.4 %cutin=0.1 %cutout=0.1
...
